*SPEF "IEEE 1481-1998"
*DESIGN "uart"
*DATE "Fri Dec  5 10:57:15 2008"
*VENDOR "Silicon Perspective, A Cadence Company"
*PROGRAM "First Encounter"
*VERSION "05.20-p002_1"
*DESIGN_FLOW "COUPLING C" "PIN_CAP NONE" "NAME_SCOPE LOCAL"
*DIVIDER /
*DELIMITER :
*BUS_DELIMITER []
*T_UNIT 1 NS
*C_UNIT 1 PF
*R_UNIT 1 OHM
*L_UNIT 1 HENRY

*NAME_MAP

*1 u3/add_59/carry\[2\]
*2 u3/add_59/carry\[3\]
*3 u3/add_59/carry\[4\]
*4 u3/add_59/carry\[5\]
*5 u3/add_59/carry\[6\]
*6 u3/add_59/carry\[7\]
*7 u3/N10
*8 u3/N51
*9 u3/N55
*10 u3/N59
*11 u3/N63
*12 u3/N67
*13 u3/N71
*14 u3/N75
*15 u3/N79
*16 u3/N88
*17 u3/N89
*18 u3/N90
*19 u3/N91
*20 u3/N92
*21 u3/N93
*22 u3/N94
*23 u3/N95
*24 u3/clk_sample_counter[0]
*25 u3/clk_sample_counter[1]
*26 u3/clk_sample_counter[2]
*27 u3/clk_sample_counter[3]
*28 u3/clk_sample_counter[4]
*29 u3/clk_sample_counter[5]
*30 u3/clk_sample_counter[6]
*31 u3/clk_sample_counter[7]
*32 u3/n100
*33 u3/n13
*34 u3/n14
*35 u3/n15
*36 u3/n16
*37 u3/n17
*38 u3/n18
*39 u3/n20
*40 u3/n22
*41 u3/n24
*42 u3/n25
*43 u3/n28
*44 u3/n29
*45 u3/n30
*46 u3/n31
*47 u3/n32
*48 u3/n33
*49 u3/n34
*50 u3/n35
*51 u3/n40
*52 u3/n41
*53 u3/n42
*54 u3/n43
*55 u3/n44
*56 u3/n45
*57 u3/n46
*58 u3/n47
*59 u3/n48
*60 u3/n49
*61 u3/n50
*62 u3/n9
*63 u3/output_regs\[1\]
*64 u3/output_regs\[2\]
*65 u3/output_regs\[3\]
*66 u3/output_regs\[4\]
*67 u3/output_regs\[5\]
*68 u3/output_regs\[6\]
*69 u3/output_regs\[7\]
*70 u3/output_regs\[8\]
*71 u2/N10
*72 u2/N11
*73 u2/N12
*74 u2/N13
*75 u2/N16
*76 u2/N17
*77 u2/N18
*78 u2/N4
*79 u2/N5
*80 u2/n15
*81 u2/n160
*82 u2/n170
*83 u2/n180
*84 u2/n20
*85 u2/n21
*86 u2/n22
*87 u2/n23
*88 u2/n24
*89 u2/n25
*90 u2/n26
*91 u2/n30
*92 u2/n31
*93 u2/n32
*94 u2/n33
*95 u2/n34
*96 u2/n35
*97 u2/n36
*98 u2/n40
*99 u2/n7
*100 u2/n9
*101 u2/rst_flag
*102 u2/te_flag
*103 u2/tx_counter[0]
*104 u2/tx_counter[1]
*105 u2/tx_counter[2]
*106 u2/tx_counter[3]
*107 u2/clk_counter\[0\]
*108 u2/clk_counter\[1\]
*109 u2/clk_counter\[2\]
*110 u2/para_data_copy1\[8\]
*111 u2/para_data_copy\[9\]
*112 u1/add_42/carry\[10\]
*113 u1/add_42/carry\[11\]
*114 u1/add_42/carry\[12\]
*115 u1/add_42/carry\[13\]
*116 u1/add_42/carry\[14\]
*117 u1/add_42/carry\[15\]
*118 u1/add_42/carry\[2\]
*119 u1/add_42/carry\[3\]
*120 u1/add_42/carry\[4\]
*121 u1/add_42/carry\[5\]
*122 u1/add_42/carry\[6\]
*123 u1/add_42/carry\[7\]
*124 u1/add_42/carry\[8\]
*125 u1/add_42/carry\[9\]
*126 u1/lte_54/n15
*127 u1/lte_54/n16
*128 u1/lte_54/n17
*129 u1/lte_54/n18
*130 u1/lte_54/n19
*131 u1/lte_54/n20
*132 u1/lte_54/n21
*133 u1/lte_54/n22
*134 u1/lte_54/n23
*135 u1/lte_54/n24
*136 u1/lte_54/n25
*137 u1/lte_54/n26
*138 u1/lte_54/n27
*139 u1/lte_54/n28
*140 u1/lte_54/n29
*141 u1/lte_54/n30
*142 u1/lte_54/n31
*143 u1/lte_54/n32
*144 u1/lte_54/n33
*145 u1/lte_54/n34
*146 u1/lte_54/n35
*147 u1/lte_54/n36
*148 u1/lte_54/n37
*149 u1/lte_54/n38
*150 u1/lte_54/n39
*151 u1/lte_54/n40
*152 u1/lte_54/n41
*153 u1/lte_54/n42
*154 u1/lte_54/n43
*155 u1/lte_54/n44
*156 u1/lte_54/n45
*157 u1/lte_54/n46
*158 u1/lte_54/n47
*159 u1/lte_54/n48
*160 u1/lte_54/n49
*161 u1/lte_54/n50
*162 u1/lte_54/n51
*163 u1/lte_54/n52
*164 u1/lte_54/n53
*165 u1/lte_54/n54
*166 u1/lte_54/n55
*167 u1/lte_54/n56
*168 u1/lt_41/n16
*169 u1/lt_41/n17
*170 u1/lt_41/n18
*171 u1/lt_41/n19
*172 u1/lt_41/n20
*173 u1/lt_41/n21
*174 u1/lt_41/n22
*175 u1/lt_41/n23
*176 u1/lt_41/n24
*177 u1/lt_41/n25
*178 u1/lt_41/n26
*179 u1/lt_41/n27
*180 u1/lt_41/n28
*181 u1/lt_41/n29
*182 u1/lt_41/n30
*183 u1/lt_41/n31
*184 u1/lt_41/n32
*185 u1/lt_41/n33
*186 u1/lt_41/n34
*187 u1/lt_41/n35
*188 u1/lt_41/n36
*189 u1/lt_41/n37
*190 u1/lt_41/n38
*191 u1/lt_41/n39
*192 u1/lt_41/n40
*193 u1/lt_41/n41
*194 u1/lt_41/n42
*195 u1/lt_41/n43
*196 u1/lt_41/n44
*197 u1/lt_41/n45
*198 u1/lt_41/n46
*199 u1/lt_41/n47
*200 u1/lt_41/n48
*201 u1/lt_41/n49
*202 u1/lt_41/n50
*203 u1/lt_41/n51
*204 u1/lt_41/n52
*205 u1/lt_41/n53
*206 u1/lt_41/n54
*207 u1/lt_41/n55
*208 u1/lt_41/n56
*209 u1/lt_41/n57
*210 u1/lt_41/n58
*211 u1/lt_41/n59
*212 u1/N10
*213 u1/N11
*214 u1/N12
*215 u1/N13
*216 u1/N14
*217 u1/N15
*218 u1/N16
*219 u1/N17
*220 u1/N18
*221 u1/N19
*222 u1/N20
*223 u1/N21
*224 u1/N22
*225 u1/N23
*226 u1/N24
*227 u1/N25
*228 u1/N26
*229 u1/N27
*230 u1/N28
*231 u1/N29
*232 u1/N3
*233 u1/N30
*234 u1/N31
*235 u1/N32
*236 u1/N33
*237 u1/N34
*238 u1/N35
*239 u1/N36
*240 u1/N37
*241 u1/N5
*242 u1/N6
*243 u1/N7
*244 u1/N8
*245 u1/N9
*246 u1/counter[0]
*247 u1/counter[10]
*248 u1/counter[11]
*249 u1/counter[12]
*250 u1/counter[13]
*251 u1/counter[14]
*252 u1/counter[15]
*253 u1/counter[1]
*254 u1/counter[2]
*255 u1/counter[3]
*256 u1/counter[4]
*257 u1/counter[5]
*258 u1/counter[6]
*259 u1/counter[7]
*260 u1/counter[8]
*261 u1/counter[9]
*262 u1/divisor_copy\[10\]
*263 u1/divisor_copy\[11\]
*264 u1/divisor_copy\[12\]
*265 u1/divisor_copy\[13\]
*266 u1/divisor_copy\[14\]
*267 u1/divisor_copy\[15\]
*268 u1/divisor_copy\[1\]
*269 u1/divisor_copy\[2\]
*270 u1/divisor_copy\[3\]
*271 u1/divisor_copy\[4\]
*272 u1/divisor_copy\[5\]
*273 u1/divisor_copy\[6\]
*274 u1/divisor_copy\[7\]
*275 u1/divisor_copy\[8\]
*276 u1/divisor_copy\[9\]
*277 baudout_clk
*278 clk
*279 clk__L1_N0
*280 clk__L2_N0
*281 clk_tx
*282 divisor[0]
*283 divisor[10]
*284 divisor[11]
*285 divisor[12]
*286 divisor[13]
*287 divisor[14]
*288 divisor[15]
*289 divisor[1]
*290 divisor[2]
*291 divisor[3]
*292 divisor[4]
*293 divisor[5]
*294 divisor[6]
*295 divisor[7]
*296 divisor[8]
*297 divisor[9]
*298 para_data_in[7]
*299 para_data_out[0]
*300 para_data_out[1]
*301 para_data_out[2]
*302 para_data_out[3]
*303 para_data_out[4]
*304 para_data_out[5]
*305 para_data_out[6]
*306 para_data_out[7]
*307 rst_n
*308 rx_flag
*309 serial_in
*310 serial_out
*311 tx_en
*312 tx_flag
*313 para_data_in[6]
*314 para_data_in[5]
*315 para_data_in[4]
*316 para_data_in[3]
*317 para_data_in[2]
*318 para_data_in[1]
*319 para_data_in[0]
*320 clk__L2_I0
*321 clk__L1_I0
*322 u1/out_clk_reg
*323 u1/U3
*324 u1/U4
*325 u1/U8
*326 u1/U9
*327 u1/U10
*328 u1/U11
*329 u1/U12
*330 u1/U13
*331 u1/U14
*332 u1/U15
*333 u1/U16
*334 u1/U17
*335 u1/U18
*336 u1/U19
*337 u1/U20
*338 u1/U21
*339 u1/counter_reg\[1\]
*340 u1/counter_reg\[2\]
*341 u1/counter_reg\[0\]
*342 u1/counter_reg\[4\]
*343 u1/counter_reg\[3\]
*344 u1/counter_reg\[5\]
*345 u1/counter_reg\[9\]
*346 u1/counter_reg\[6\]
*347 u1/counter_reg\[8\]
*348 u1/counter_reg\[7\]
*349 u1/counter_reg\[13\]
*350 u1/counter_reg\[10\]
*351 u1/counter_reg\[14\]
*352 u1/counter_reg\[12\]
*353 u1/counter_reg\[15\]
*354 u1/counter_reg\[11\]
*355 u1/divisor_copy_reg\[9\]
*356 u1/divisor_copy_reg\[8\]
*357 u1/divisor_copy_reg\[5\]
*358 u1/divisor_copy_reg\[4\]
*359 u1/divisor_copy_reg\[10\]
*360 u1/divisor_copy_reg\[6\]
*361 u1/divisor_copy_reg\[11\]
*362 u1/divisor_copy_reg\[7\]
*363 u1/divisor_copy_reg\[3\]
*364 u1/divisor_copy_reg\[2\]
*365 u1/divisor_copy_reg\[1\]
*366 u1/divisor_copy_reg\[12\]
*367 u1/divisor_copy_reg\[13\]
*368 u1/divisor_copy_reg\[15\]
*369 u1/divisor_copy_reg\[14\]
*370 u1/lte_54/U6
*371 u1/lte_54/U7
*372 u1/lte_54/U8
*373 u1/lte_54/U9
*374 u1/lte_54/U10
*375 u1/lte_54/U11
*376 u1/lte_54/U12
*377 u1/lte_54/U13
*378 u1/lte_54/U14
*379 u1/lte_54/U15
*380 u1/lte_54/U16
*381 u1/lte_54/U17
*382 u1/lte_54/U18
*383 u1/lte_54/U19
*384 u1/lte_54/U20
*385 u1/lte_54/U21
*386 u1/lte_54/U22
*387 u1/lte_54/U23
*388 u1/lte_54/U24
*389 u1/lte_54/U25
*390 u1/lte_54/U26
*391 u1/lte_54/U27
*392 u1/lte_54/U28
*393 u1/lte_54/U29
*394 u1/lte_54/U30
*395 u1/lte_54/U31
*396 u1/lte_54/U32
*397 u1/lte_54/U33
*398 u1/lte_54/U34
*399 u1/lte_54/U35
*400 u1/lte_54/U36
*401 u1/lte_54/U37
*402 u1/lte_54/U38
*403 u1/lte_54/U39
*404 u1/lte_54/U40
*405 u1/lte_54/U41
*406 u1/lte_54/U42
*407 u1/lte_54/U43
*408 u1/lte_54/U44
*409 u1/lte_54/U45
*410 u1/lte_54/U46
*411 u1/lte_54/U47
*412 u1/lte_54/U48
*413 u1/add_42/U5
*414 u1/add_42/U1_1_2
*415 u1/add_42/U1_1_3
*416 u1/add_42/U1_1_4
*417 u1/add_42/U1_1_5
*418 u1/add_42/U1_1_6
*419 u1/add_42/U1_1_7
*420 u1/add_42/U1_1_8
*421 u1/add_42/U1_1_9
*422 u1/add_42/U1_1_10
*423 u1/add_42/U1_1_11
*424 u1/add_42/U1_1_12
*425 u1/add_42/U1_1_13
*426 u1/add_42/U1_1_1
*427 u1/add_42/U1_1_14
*428 u1/add_42/U6
*429 u1/lt_41/U6
*430 u1/lt_41/U7
*431 u1/lt_41/U8
*432 u1/lt_41/U9
*433 u1/lt_41/U10
*434 u1/lt_41/U11
*435 u1/lt_41/U12
*436 u1/lt_41/U13
*437 u1/lt_41/U14
*438 u1/lt_41/U15
*439 u1/lt_41/U16
*440 u1/lt_41/U17
*441 u1/lt_41/U18
*442 u1/lt_41/U19
*443 u1/lt_41/U20
*444 u1/lt_41/U21
*445 u1/lt_41/U22
*446 u1/lt_41/U23
*447 u1/lt_41/U24
*448 u1/lt_41/U25
*449 u1/lt_41/U26
*450 u1/lt_41/U27
*451 u1/lt_41/U28
*452 u1/lt_41/U29
*453 u1/lt_41/U30
*454 u1/lt_41/U31
*455 u1/lt_41/U32
*456 u1/lt_41/U33
*457 u1/lt_41/U34
*458 u1/lt_41/U35
*459 u1/lt_41/U36
*460 u1/lt_41/U37
*461 u1/lt_41/U38
*462 u1/lt_41/U39
*463 u1/lt_41/U40
*464 u1/lt_41/U41
*465 u1/lt_41/U42
*466 u1/lt_41/U43
*467 u1/lt_41/U44
*468 u1/lt_41/U45
*469 u1/lt_41/U46
*470 u1/lt_41/U47
*471 u1/lt_41/U48
*472 u1/lt_41/U49
*473 u1/lt_41/U50
*474 u2/U18
*475 u2/U23
*476 u2/rst_flag_reg
*477 u2/clk_counter_reg\[3\]
*478 u2/U30
*479 u2/U31
*480 u2/U34
*481 u2/para_data_copy1_reg\[8\]
*482 u2/U35
*483 u2/U36
*484 u2/U37
*485 u2/U38
*486 u2/U39
*487 u2/U40
*488 u2/U41
*489 u2/U42
*490 u2/U43
*491 u2/U44
*492 u2/U45
*493 u2/U46
*494 u2/U47
*495 u2/U48
*496 u2/U49
*497 u2/U50
*498 u2/U51
*499 u2/U52
*500 u2/U53
*501 u2/U54
*502 u2/U55
*503 u2/U56
*504 u2/clk_counter_reg\[0\]
*505 u2/clk_counter_reg\[1\]
*506 u2/clk_counter_reg\[2\]
*507 u2/te_flag_reg
*508 u2/tx_counter_reg\[3\]
*509 u2/tx_counter_reg\[0\]
*510 u2/tx_counter_reg\[2\]
*511 u2/tx_counter_reg\[1\]
*512 u2/tx_end_flag_reg
*513 u2/para_data_copy_reg\[9\]
*514 u2/U57
*515 u2/U58
*516 u2/U59
*517 u3/U15
*518 u3/U18
*519 u3/U19
*520 u3/U20
*521 u3/U21
*522 u3/U22
*523 u3/U24
*524 u3/U28
*525 u3/U40
*526 u3/U43
*527 u3/U44
*528 u3/U45
*529 u3/U46
*530 u3/U47
*531 u3/U48
*532 u3/U49
*533 u3/U50
*534 u3/U55
*535 u3/U56
*536 u3/U57
*537 u3/U58
*538 u3/U59
*539 u3/U60
*540 u3/U61
*541 u3/U62
*542 u3/U63
*543 u3/U64
*544 u3/re_flag_reg
*545 u3/U65
*546 u3/U66
*547 u3/U67
*548 u3/U68
*549 u3/U69
*550 u3/U70
*551 u3/U71
*552 u3/U72
*553 u3/U73
*554 u3/U74
*555 u3/U75
*556 u3/U76
*557 u3/U77
*558 u3/U78
*559 u3/U79
*560 u3/U80
*561 u3/U81
*562 u3/U82
*563 u3/U83
*564 u3/U84
*565 u3/U85
*566 u3/clk_sample_counter_reg\[5\]
*567 u3/clk_sample_counter_reg\[4\]
*568 u3/clk_sample_counter_reg\[0\]
*569 u3/clk_sample_counter_reg\[7\]
*570 u3/clk_sample_counter_reg\[6\]
*571 u3/clk_sample_counter_reg\[3\]
*572 u3/clk_sample_counter_reg\[1\]
*573 u3/clk_sample_counter_reg\[2\]
*574 u3/output_regs_reg\[1\]
*575 u3/output_regs_reg\[2\]
*576 u3/output_regs_reg\[3\]
*577 u3/output_regs_reg\[4\]
*578 u3/output_regs_reg\[5\]
*579 u3/output_regs_reg\[6\]
*580 u3/output_regs_reg\[7\]
*581 u3/output_regs_reg\[8\]
*582 u3/add_59/U1_1_2
*583 u3/add_59/U1_1_3
*584 u3/add_59/U1_1_4
*585 u3/add_59/U1_1_5
*586 u3/add_59/U1_1_1
*587 u3/add_59/U1_1_6
*588 u3/add_59/U5
*589 u3/add_59/U6


*PORTS

*278 I *C 216.3 312.5
*288 I *C 371.67 206.25
*287 I *C 279.3 312.5
*286 I *C 371.67 226.25
*285 I *C 371.67 197.5
*284 I *C 371.67 185
*283 I *C 371.67 190
*297 I *C 371.67 160
*296 I *C 371.67 156.25
*295 I *C 371.67 147.5
*294 I *C 371.67 143.75
*293 I *C 371.67 113.75
*292 I *C 371.67 110
*291 I *C 371.67 116.25
*290 I *C 269.5 0
*289 I *C 371.67 118.75
*282 I *C 192.5 0
*307 I *C 217.7 312.5
*298 I *C 0 120
*313 I *C 185.5 312.5
*314 I *C 185.5 312.5
*315 I *C 188.3 312.5
*316 I *C 188.3 312.5
*317 I *C 182.7 312.5
*318 I *C 182.7 312.5
*319 I *C 191.1 312.5
*310 O *C 0 130
*311 I *C 121.1 0
*312 O *C 129.5 0
*309 I *C 224.7 312.5
*306 O *C 160.3 312.5
*305 O *C 221.9 312.5
*304 O *C 214.9 312.5
*303 O *C 228.9 312.5
*302 O *C 210.7 312.5
*301 O *C 179.9 312.5
*300 O *C 213.5 312.5
*299 O *C 202.3 312.5
*308 O *C 371.67 167.5
*281 O *C 184.1 0


*D_NET *225 0.008952

*CONN
*I *426:S O *C 244 55 *L 0 *D HA1D1
*I *326:A1 I *C 301 57 *L 0.0106 *D AN2D1

*CAP
1 *426:S 0.002328
2 *225:3 0.002421
3 *225:2 0.002148
4 *326:A1 0.002055

*RES
1 *225:2 *326:A1 4.522
2 *225:3 *225:2 0.2125
3 *426:S *225:3 5.151
*END

*D_NET *199 0.000216

*CONN
*I *442:ZN O *C 280 117 *L 0 *D INV0
*I *441:A2 I *C 282 117 *L 0.0094 *D ND2D0

*CAP
1 *441:A2 0.000108
2 *442:ZN 0.000108

*RES
1 *442:ZN *441:A2 0.238
*END

*D_NET *164 0.000216

*CONN
*I *387:ZN O *C 219 142 *L 0 *D INV0
*I *386:A2 I *C 217 142 *L 0.014 *D AOI22D0

*CAP
1 *386:A2 0.000108
2 *387:ZN 0.000108

*RES
1 *386:A2 *387:ZN 0.238
*END

*D_NET *229 0.00299

*CONN
*I *417:S O *C 73 155 *L 0 *D HA1D1
*I *338:A1 I *C 55 157 *L 0.0106 *D AN2D1

*CAP
1 *338:A1 0.00065
2 *229:3 0.000743
3 *229:2 0.000845
4 *417:S 0.000752

*RES
1 *229:2 *417:S 1.666
2 *229:2 *229:3 0.2125
3 *338:A1 *229:3 1.428
*END

*D_NET *230 0.001266

*CONN
*I *418:S O *C 112 155 *L 0 *D HA1D1
*I *337:A1 I *C 119 157 *L 0.0106 *D AN2D1

*CAP
1 *337:A1 0.000324
2 *230:3 0.000417
3 *230:2 0.000309
4 *418:S 0.000216

*RES
1 *418:S *230:2 0.476
2 *230:2 *230:3 0.2125
3 *230:3 *337:A1 0.714
*END

*D_NET *57 0.000834

*CONN
*I *563:ZN O *C 235 168 *L 0 *D INV0
*I *559:A2 I *C 233 167 *L 0.0164 *D NR3D0
*I *527:I I *C 237 167 *L 0.0097 *D INV0

*CAP
1 *559:A2 9.3e-05
2 *57:3 0.000309
3 *563:ZN 0.000324
4 *527:I 0.000108

*RES
1 *563:ZN *527:I 0.238
2 *57:3 *563:ZN 0.476
3 *559:A2 *57:3 0.2125
*END

*D_NET *233 0.00083

*CONN
*I *420:S O *C 107 180 *L 0 *D HA1D1
*I *335:A1 I *C 111 182 *L 0.0106 *D AN2D1

*CAP
1 *335:A1 9.3e-05
2 *233:2 0.000415
3 *420:S 0.000322

*RES
1 *420:S *233:2 0.714
2 *233:2 *335:A1 0.2125
*END

*D_NET *231 0.001694

*CONN
*I *419:S O *C 70 180 *L 0 *D HA1D1
*I *336:A1 I *C 60 182 *L 0.0106 *D AN2D1

*CAP
1 *336:A1 0.000324
2 *231:3 0.000417
3 *231:2 0.000523
4 *419:S 0.00043

*RES
1 *231:2 *419:S 0.952
2 *231:2 *231:3 0.2125
3 *336:A1 *231:3 0.714
*END

*D_NET *210 0.000216

*CONN
*I *465:ZN O *C 286 182 *L 0 *D INV0
*I *435:B2 I *C 287 182 *L 0.0139 *D AOI22D0

*CAP
1 *435:B2 0.000108
2 *465:ZN 0.000108

*RES
1 *465:ZN *435:B2 0.238
*END

*D_NET *59 0.000216

*CONN
*I *565:ZN O *C 230 192 *L 0 *D INV0
*I *558:A1 I *C 228 192 *L 0.0096 *D ND2D0

*CAP
1 *558:A1 0.000108
2 *565:ZN 0.000108

*RES
1 *558:A1 *565:ZN 0.238
*END

*D_NET *234 0.00407

*CONN
*I *421:S O *C 86 205 *L 0 *D HA1D1
*I *334:A1 I *C 60 207 *L 0.0106 *D AN2D1

*CAP
1 *421:S 0.00086
2 *234:3 0.000953
3 *234:2 0.001175
4 *334:A1 0.001082

*RES
1 *334:A1 *234:2 2.38
2 *234:3 *234:2 0.2125
3 *234:3 *421:S 1.904
*END

*D_NET *134 0.000216

*CONN
*I *409:ZN O *C 286 217 *L 0 *D INV0
*I *408:B2 I *C 284 217 *L 0.0142 *D OAI22D0

*CAP
1 *408:B2 0.000108
2 *409:ZN 0.000108

*RES
1 *408:B2 *409:ZN 0.238
*END

*D_NET *239 0.000618

*CONN
*I *427:S O *C 165 230 *L 0 *D HA1D1
*I *329:A1 I *C 168 232 *L 0.0106 *D AN2D1

*CAP
1 *329:A1 9.3e-05
2 *239:2 0.000309
3 *427:S 0.000216

*RES
1 *427:S *239:2 0.476
2 *239:2 *329:A1 0.2125
*END

*D_NET *236 0.004718

*CONN
*I *423:S O *C 90 230 *L 0 *D HA1D1
*I *332:A1 I *C 60 232 *L 0.0106 *D AN2D1

*CAP
1 *423:S 0.001184
2 *236:3 0.001277
3 *236:2 0.001175
4 *332:A1 0.001082

*RES
1 *332:A1 *236:2 2.38
2 *236:3 *236:2 0.2125
3 *236:3 *423:S 2.618
*END

*D_NET *139 0.000216

*CONN
*I *407:ZN O *C 273 232 *L 0 *D INV0
*I *371:A2 I *C 272 232 *L 0.0095 *D NR2D0

*CAP
1 *371:A2 0.000108
2 *407:ZN 0.000108

*RES
1 *371:A2 *407:ZN 0.238
*END

*D_NET *237 0.001264

*CONN
*I *424:S O *C 97 245 *L 0 *D HA1D1
*I *331:A1 I *C 90 242 *L 0.0106 *D AN2D1

*CAP
1 *331:A1 0.000217
2 *237:3 0.00031
3 *237:2 0.000415
4 *424:S 0.000322

*RES
1 *237:2 *424:S 0.714
2 *237:3 *237:2 0.2125
3 *331:A1 *237:3 0.476
*END

*D_NET *216 0.002844

*CONN
*I *345:D I *C 56 195 *L 0.0078 *D DFCN1Q
*I *334:Z O *C 56 206 *L 0 *D AN2D1

*CAP
1 *334:Z 0.000302
2 *216:3 0.00112
3 *216:2 0.00112
4 *345:D 0.000302

*RES
1 *345:D *216:2 1.48
2 *216:2 *216:3 1.59375
3 *216:3 *334:Z 1.48
*END

*D_NET *226 0.003149

*CONN
*I *414:S O *C 86 105 *L 0 *D HA1D1
*I *325:A1 I *C 83 117 *L 0.0106 *D AN2D1

*CAP
1 *325:A1 0.000302
2 *226:4 0.001094
3 *226:3 0.001094
4 *226:2 0.000443
5 *414:S 0.000216

*RES
1 *226:2 *414:S 0.476
2 *226:2 *226:3 1.48
3 *226:3 *226:4 1.59375
4 *226:4 *325:A1 1.48
*END

*D_NET *219 0.004792

*CONN
*I *352:D I *C 87 220 *L 0.0078 *D DFCN1Q
*I *331:Z O *C 86 243 *L 0 *D AN2D1

*CAP
1 *331:Z 0.000302
2 *219:5 0.001112
3 *219:4 0.001013
4 *219:3 0.000982
5 *219:2 0.001081
6 *352:D 0.000302

*RES
1 *352:D *219:2 1.48
2 *219:2 *219:3 1.59375
3 *219:4 *219:3 0.198333
4 *219:4 *219:5 1.77083
5 *219:5 *331:Z 1.48
*END

*D_NET *114 0.003103

*CONN
*I *424:B I *C 108 242 *L 0.0157 *D HA1D1
*I *423:CO O *C 107 232 *L 0 *D HA1D1

*CAP
1 *424:B 0.000302
2 *114:4 0.001179
3 *114:3 0.001179
4 *114:2 0.000335
5 *423:CO 0.000108

*RES
1 *423:CO *114:2 0.238
2 *114:2 *114:3 1.48
3 *114:3 *114:4 1.41667
4 *114:4 *424:B 1.48
*END

*D_NET *76 0.008831

*CONN
*I *482:Z O *C 114 78 *L 0 *D XOR2D1
*I *478:A1 I *C 84 57 *L 0.0096 *D ND2D0

*CAP
1 *482:Z 0.000302
2 *76:4 0.001879
3 *76:3 0.001879
4 *76:2 0.002499
5 *478:A1 0.002272

*RES
1 *478:A1 *76:2 4.998
2 *76:2 *76:3 1.48
3 *76:3 *76:4 3.01042
4 *76:4 *482:Z 1.48
*END

*D_NET *245 0.004489

*CONN
*I *342:D I *C 122 195 *L 0.0078 *D DFCN1Q
*I *323:Z O *C 130 181 *L 0 *D AN2D1

*CAP
1 *323:Z 0.000646
2 *245:4 0.000873
3 *245:3 0.001334
4 *245:2 0.001334
5 *342:D 0.000302

*RES
1 *342:D *245:2 1.48
2 *245:3 *245:2 1.94792
3 *245:3 *245:4 1.48
4 *245:4 *323:Z 1.428
*END

*D_NET *220 0.003048

*CONN
*I *349:D I *C 125 245 *L 0.0078 *D DFCN1Q
*I *330:Z O *C 123 256 *L 0 *D AN2D1

*CAP
1 *330:Z 0.000302
2 *220:5 0.000707
3 *220:4 0.000608
4 *220:3 0.000515
5 *220:2 0.000614
6 *349:D 0.000302

*RES
1 *349:D *220:2 1.48
2 *220:2 *220:3 0.708333
3 *220:4 *220:3 0.198333
4 *220:4 *220:5 0.885417
5 *220:5 *330:Z 1.48
*END

*D_NET *89 0.011444

*CONN
*I *512:QN O *C 123 68 *L 0 *D DFCSN1N
*I *474:I I *C 129 117 *L 0.0365 *D INV2

*CAP
1 *512:QN 0.000245
2 *89:7 0.000472
3 *89:6 0.001296
4 *89:5 0.001197
5 *89:4 0.003623
6 *89:3 0.003722
7 *89:2 0.000558
8 *474:I 0.000331

*RES
1 *89:2 *474:I 0.714
2 *89:2 *89:3 1.48
3 *89:4 *89:3 4.95833
4 *89:4 *89:5 0.198333
5 *89:6 *89:5 1.94792
6 *89:6 *89:7 1.48
7 *512:QN *89:7 0.476
*END

*D_NET *112 0.009493

*CONN
*I *422:B I *C 129 232 *L 0.0157 *D HA1D1
*I *421:CO O *C 102 207 *L 0 *D HA1D1

*CAP
1 *421:CO 0.002055
2 *112:4 0.002282
3 *112:3 0.002427
4 *112:2 0.002427
5 *422:B 0.000302

*RES
1 *422:B *112:2 1.48
2 *112:3 *112:2 3.54167
3 *112:3 *112:4 1.48
4 *421:CO *112:4 4.522
*END

*D_NET *117 0.005454

*CONN
*I *428:A1 I *C 149 203 *L 0.0119 *D XOR2D1
*I *427:CO O *C 149 232 *L 0 *D HA1D1

*CAP
1 *427:CO 0.000302
2 *117:3 0.002425
3 *117:2 0.002425
4 *428:A1 0.000302

*RES
1 *428:A1 *117:2 1.48
2 *117:2 *117:3 4.07292
3 *117:3 *427:CO 1.48
*END

*D_NET *75 0.001446

*CONN
*I *514:Z O *C 154 81 *L 0 *D XOR2D1
*I *486:A1 I *C 156 82 *L 0.0096 *D ND2D0

*CAP
1 *486:A1 0.000302
2 *75:4 0.000319
3 *75:3 0.000212
4 *75:2 0.000311
5 *514:Z 0.000302

*RES
1 *514:Z *75:2 1.48
2 *75:2 *75:3 0.177083
3 *75:3 *75:4 0.198333
4 *75:4 *486:A1 1.48
*END

*D_NET *81 0.003016

*CONN
*I *511:SDN I *C 157 96 *L 0.0283 *D DFCSN1N
*I *486:ZN O *C 157 83 *L 0 *D ND2D0

*CAP
1 *511:SDN 0.000302
2 *81:3 0.001206
3 *81:2 0.001206
4 *486:ZN 0.000302

*RES
1 *486:ZN *81:2 1.48
2 *81:2 *81:3 1.77083
3 *81:3 *511:SDN 1.48
*END

*D_NET *21 0.003249

*CONN
*I *585:S O *C 161 180 *L 0 *D HA1D1
*I *566:D I *C 160 170 *L 0.008 *D DFCNS1Q

*CAP
1 *585:S 0.000216
2 *21:6 0.000443
3 *21:5 0.000503
4 *21:4 0.000405
5 *21:3 0.000641
6 *21:2 0.000739
7 *566:D 0.000302

*RES
1 *566:D *21:2 1.48
2 *21:2 *21:3 1.0625
3 *21:4 *21:3 0.198333
4 *21:4 *21:5 0.53125
5 *21:5 *21:6 1.48
6 *21:6 *585:S 0.476
*END

*D_NET *70 0.001573

*CONN
*I *581:Q O *C 171 191 *L 0 *D DFCNS1Q
*I *534:A1 I *C 168 192 *L 0.0078 *D INR2D2

*CAP
1 *534:A1 0.000108
2 *70:5 0.000335
3 *70:4 0.00032
4 *70:3 0.000205
5 *70:2 0.000303
6 *581:Q 0.000302

*RES
1 *581:Q *70:2 1.48
2 *70:2 *70:3 0.177083
3 *70:4 *70:3 0.198333
4 *70:4 *70:5 1.48
5 *534:A1 *70:5 0.238
*END

*D_NET *4 0.005169

*CONN
*I *585:B I *C 172 182 *L 0.0157 *D HA1D1
*I *584:CO O *C 171 157 *L 0 *D HA1D1

*CAP
1 *584:CO 0.000108
2 *4:4 0.000335
3 *4:3 0.002212
4 *4:2 0.002212
5 *585:B 0.000302

*RES
1 *585:B *4:2 1.48
2 *4:3 *4:2 3.54167
3 *4:3 *4:4 1.48
4 *584:CO *4:4 0.238
*END

*D_NET *221 0.002918

*CONN
*I *351:D I *C 172 220 *L 0.0078 *D DFCN1Q
*I *329:Z O *C 172 231 *L 0 *D AN2D1

*CAP
1 *329:Z 0.000302
2 *221:3 0.001157
3 *221:2 0.001157
4 *351:D 0.000302

*RES
1 *351:D *221:2 1.48
2 *221:2 *221:3 1.59375
3 *221:3 *329:Z 1.48
*END

*D_NET *65 0.002826

*CONN
*I *576:Q O *C 175 233 *L 0 *D DFCNS1Q
*I *539:A1 I *C 174 242 *L 0.0078 *D INR2D2

*CAP
1 *576:Q 0.000302
2 *65:5 0.000579
3 *65:4 0.000481
4 *65:3 0.000532
5 *65:2 0.00063
6 *539:A1 0.000302

*RES
1 *539:A1 *65:2 1.48
2 *65:3 *65:2 0.708333
3 *65:3 *65:4 0.198333
4 *65:5 *65:4 0.53125
5 *65:5 *576:Q 1.48
*END

*D_NET *22 0.005885

*CONN
*I *587:S O *C 203 180 *L 0 *D HA1D1
*I *570:D I *C 186 170 *L 0.008 *D DFCNS1Q

*CAP
1 *587:S 0.001584
2 *22:4 0.001811
3 *22:3 0.001094
4 *22:2 0.001094
5 *570:D 0.000302

*RES
1 *570:D *22:2 1.48
2 *22:2 *22:3 1.59375
3 *22:3 *22:4 1.48
4 *22:4 *587:S 2.856
*END

*D_NET *16 0.003639

*CONN
*I *588:ZN O *C 198 81 *L 0 *D INV0
*I *568:D I *C 203 70 *L 0.008 *D DFCNS1Q

*CAP
1 *588:ZN 0.000464
2 *16:4 0.000691
3 *16:3 0.001091
4 *16:2 0.001091
5 *568:D 0.000302

*RES
1 *568:D *16:2 1.48
2 *16:2 *16:3 1.59375
3 *16:3 *16:4 1.48
4 *588:ZN *16:4 0.952
*END

*D_NET *63 0.006736

*CONN
*I *574:Q O *C 209 208 *L 0 *D DFCNS1Q
*I *545:A1 I *C 210 242 *L 0.0078 *D INR2D2

*CAP
1 *574:Q 0.000302
2 *63:5 0.002266
3 *63:4 0.002168
4 *63:3 0.0008
5 *63:2 0.000898
6 *545:A1 0.000302

*RES
1 *545:A1 *63:2 1.48
2 *63:3 *63:2 1.23958
3 *63:4 *63:3 0.198333
4 *63:5 *63:4 3.54167
5 *63:5 *574:Q 1.48
*END

*D_NET *165 0.002354

*CONN
*I *388:ZN O *C 212 133 *L 0 *D INV0
*I *386:B2 I *C 212 142 *L 0.0139 *D AOI22D0

*CAP
1 *386:B2 0.000302
2 *165:3 0.000875
3 *165:2 0.000875
4 *388:ZN 0.000302

*RES
1 *388:ZN *165:2 1.48
2 *165:2 *165:3 1.23958
3 *165:3 *386:B2 1.48
*END

*D_NET *17 0.002774

*CONN
*I *586:S O *C 227 71 *L 0 *D HA1D1
*I *572:D I *C 228 80 *L 0.008 *D DFCNS1Q

*CAP
1 *586:S 0.000302
2 *17:4 0.000936
3 *17:3 0.000876
4 *17:2 0.000358
5 *572:D 0.000302

*RES
1 *572:D *17:2 1.48
2 *17:3 *17:2 0.269167
3 *17:4 *17:3 1.23958
4 *17:4 *586:S 1.48
*END

*D_NET *60 0.003022

*CONN
*I *558:ZN O *C 227 191 *L 0 *D ND2D0
*I *557:A2 I *C 227 181 *L 0.0139 *D OAI21D0

*CAP
1 *557:A2 0.000302
2 *60:3 0.001209
3 *60:2 0.001209
4 *558:ZN 0.000302

*RES
1 *558:ZN *60:2 1.48
2 *60:3 *60:2 1.41667
3 *60:3 *557:A2 1.48
*END

*D_NET *150 0.004201

*CONN
*I *383:A2 I *C 230 132 *L 0.0146 *D AOI222D0
*I *376:ZN O *C 228 116 *L 0 *D OAI21D0

*CAP
1 *376:ZN 0.000302
2 *150:4 0.001728
3 *150:3 0.001728
4 *150:2 0.000335
5 *383:A2 0.000108

*RES
1 *150:2 *383:A2 0.238
2 *150:2 *150:3 1.48
3 *150:4 *150:3 2.30208
4 *150:4 *376:ZN 1.48
*END

*D_NET *61 0.003048

*CONN
*I *559:ZN O *C 228 170 *L 0 *D NR3D0
*I *557:A1 I *C 228 182 *L 0.0137 *D OAI21D0

*CAP
1 *559:ZN 0.000302
2 *61:3 0.001222
3 *61:2 0.001222
4 *557:A1 0.000302

*RES
1 *557:A1 *61:2 1.48
2 *61:3 *61:2 1.77083
3 *61:3 *559:ZN 1.48
*END

*D_NET *69 0.003981

*CONN
*I *580:Q O *C 233 216 *L 0 *D DFCNS1Q
*I *535:A1 I *C 230 232 *L 0.0078 *D INR2D2

*CAP
1 *580:Q 0.000302
2 *69:6 0.000798
3 *69:5 0.0007
4 *69:4 0.00082
5 *69:3 0.000918
6 *69:2 0.000335
7 *535:A1 0.000108

*RES
1 *535:A1 *69:2 0.238
2 *69:2 *69:3 1.48
3 *69:4 *69:3 1.23958
4 *69:4 *69:5 0.198333
5 *69:6 *69:5 1.0625
6 *69:6 *580:Q 1.48
*END

*D_NET *37 0.001678

*CONN
*I *547:I I *C 238 192 *L 0.0097 *D INV0
*I *523:ZN O *C 235 193 *L 0 *D IND2D1

*CAP
1 *547:I 0.000302
2 *37:4 0.000316
3 *37:3 0.000328
4 *37:2 0.00043
5 *523:ZN 0.000302

*RES
1 *523:ZN *37:2 1.48
2 *37:2 *37:3 0.396667
3 *37:4 *37:3 0.177083
4 *37:4 *547:I 1.48
*END

*D_NET *1 0.004808

*CONN
*I *586:CO O *C 242 70 *L 0 *D HA1D1
*I *582:B I *C 244 92 *L 0.0157 *D HA1D1

*CAP
1 *586:CO 0.000302
2 *1:5 0.00111
3 *1:4 0.001011
4 *1:3 0.000992
5 *1:2 0.001091
6 *582:B 0.000302

*RES
1 *582:B *1:2 1.48
2 *1:3 *1:2 1.59375
3 *1:4 *1:3 0.198333
4 *1:5 *1:4 1.59375
5 *1:5 *586:CO 1.48
*END

*D_NET *147 0.002818

*CONN
*I *403:ZN O *C 245 133 *L 0 *D INV0
*I *382:B2 I *C 245 142 *L 0.0139 *D AOI22D0

*CAP
1 *382:B2 0.000302
2 *147:3 0.001107
3 *147:2 0.001107
4 *403:ZN 0.000302

*RES
1 *403:ZN *147:2 1.48
2 *147:2 *147:3 1.23958
3 *147:3 *382:B2 1.48
*END

*D_NET *206 0.005816

*CONN
*I *453:ZN O *C 252 83 *L 0 *D INV0
*I *440:A2 I *C 252 107 *L 0.014 *D AOI22D0

*CAP
1 *453:ZN 0.000112
2 *206:5 0.000339
3 *206:4 0.002461
4 *206:3 0.002461
5 *206:2 0.000335
6 *440:A2 0.000108

*RES
1 *206:2 *440:A2 0.238
2 *206:2 *206:3 1.48
3 *206:4 *206:3 3.36458
4 *206:4 *206:5 1.48
5 *206:5 *453:ZN 0.238
*END

*D_NET *203 0.00327

*CONN
*I *438:ZN O *C 252 128 *L 0 *D INV0
*I *437:B2 I *C 254 117 *L 0.0147 *D AOI222D0

*CAP
1 *438:ZN 0.000302
2 *203:5 0.000649
3 *203:4 0.00055
4 *203:3 0.000684
5 *203:2 0.000783
6 *437:B2 0.000302

*RES
1 *437:B2 *203:2 1.48
2 *203:2 *203:3 0.885417
3 *203:4 *203:3 0.198333
4 *203:4 *203:5 0.708333
5 *203:5 *438:ZN 1.48
*END

*D_NET *204 0.003106

*CONN
*I *452:ZN O *C 259 107 *L 0 *D INV0
*I *440:B2 I *C 258 107 *L 0.0139 *D AOI22D0
*I *439:A2 I *C 258 95 *L 0.0142 *D OAI22D0

*CAP
1 *440:B2 0.000108
2 *452:ZN 0.00041
3 *204:4 0.001033
4 *204:3 0.000934
5 *204:2 0.000319
6 *439:A2 0.000302

*RES
1 *439:A2 *204:2 1.48
2 *204:2 *204:3 0.198333
3 *204:3 *204:4 1.23958
4 *204:4 *452:ZN 1.48
5 *440:B2 *452:ZN 0.238
*END

*D_NET *9 0.00312

*CONN
*I *580:S I *C 261 218 *L 0.0077 *D DFCNS1Q
*I *522:Z O *C 259 208 *L 0 *D AN3D1

*CAP
1 *580:S 0.000302
2 *9:5 0.000642
3 *9:4 0.000543
4 *9:3 0.000616
5 *9:2 0.000715
6 *522:Z 0.000302

*RES
1 *522:Z *9:2 1.48
2 *9:2 *9:3 0.708333
3 *9:3 *9:4 0.198333
4 *9:4 *9:5 0.708333
5 *9:5 *580:S 1.48
*END

*D_NET *137 0.003794

*CONN
*I *372:ZN O *C 268 193 *L 0 *D NR2D0
*I *370:A3 I *C 266 207 *L 0.0162 *D NR3D0

*CAP
1 *372:ZN 0.000302
2 *137:5 0.000647
3 *137:4 0.000548
4 *137:3 0.000948
5 *137:2 0.001047
6 *370:A3 0.000302

*RES
1 *370:A3 *137:2 1.48
2 *137:3 *137:2 1.23958
3 *137:3 *137:4 0.198333
4 *137:5 *137:4 0.708333
5 *137:5 *372:ZN 1.48
*END

*D_NET *129 0.003426

*CONN
*I *399:A1 I *C 269 217 *L 0.0137 *D OAI21D0
*I *370:ZN O *C 268 205 *L 0 *D NR3D0

*CAP
1 *399:A1 0.000302
2 *129:5 0.000953
3 *129:4 0.000854
4 *129:3 0.000458
5 *129:2 0.000557
6 *370:ZN 0.000302

*RES
1 *370:ZN *129:2 1.48
2 *129:2 *129:3 0.53125
3 *129:3 *129:4 0.198333
4 *129:4 *129:5 1.23958
5 *129:5 *399:A1 1.48
*END

*D_NET *132 0.002602

*CONN
*I *411:ZN O *C 272 208 *L 0 *D INV0
*I *410:A2 I *C 272 217 *L 0.014 *D AOI22D0

*CAP
1 *410:A2 0.000302
2 *132:3 0.000999
3 *132:2 0.000999
4 *411:ZN 0.000302

*RES
1 *411:ZN *132:2 1.48
2 *132:2 *132:3 1.23958
3 *132:3 *410:A2 1.48
*END

*D_NET *193 0.00333

*CONN
*I *430:ZN O *C 277 153 *L 0 *D INV0
*I *429:B2 I *C 277 142 *L 0.0147 *D AOI222D0

*CAP
1 *430:ZN 0.000302
2 *193:3 0.001363
3 *193:2 0.001363
4 *429:B2 0.000302

*RES
1 *429:B2 *193:2 1.48
2 *193:2 *193:3 1.59375
3 *193:3 *430:ZN 1.48
*END

*D_NET *133 0.002973

*CONN
*I *412:ZN O *C 280 228 *L 0 *D INV0
*I *410:B2 I *C 277 217 *L 0.0139 *D AOI22D0
*I *408:A2 I *C 279 218 *L 0.0142 *D OAI22D0

*CAP
1 *410:B2 0.000108
2 *133:4 0.000201
3 *412:ZN 0.000112
4 *133:5 0.000339
5 *133:3 0.000909
6 *133:2 0.000909
7 *408:A2 0.000395

*RES
1 *408:A2 *133:2 1.48
2 *133:2 *133:3 1.23958
3 *133:4 *408:A2 0.2125
4 *133:3 *133:5 1.48
5 *410:B2 *133:4 0.238
6 *133:5 *412:ZN 0.238
*END

*D_NET *185 0.003488

*CONN
*I *436:A1 I *C 280 157 *L 0.0137 *D OAI21D0
*I *429:ZN O *C 280 143 *L 0 *D AOI222D0

*CAP
1 *429:ZN 0.000302
2 *185:3 0.001442
3 *185:2 0.001442
4 *436:A1 0.000302

*RES
1 *436:A1 *185:2 1.48
2 *185:3 *185:2 1.94792
3 *185:3 *429:ZN 1.48
*END

*D_NET *208 0.00543

*CONN
*I *455:ZN O *C 286 121 *L 0 *D INV0
*I *431:B2 I *C 284 142 *L 0.0139 *D AOI22D0

*CAP
1 *455:ZN 0.000302
2 *208:5 0.001022
3 *208:4 0.000923
4 *208:3 0.001391
5 *208:2 0.00149
6 *431:B2 0.000302

*RES
1 *431:B2 *208:2 1.48
2 *208:3 *208:2 1.59375
3 *208:3 *208:4 0.198333
4 *208:5 *208:4 1.41667
5 *208:5 *455:ZN 1.48
*END

*D_NET *266 0.003649

*CONN
*I *412:I I *C 282 232 *L 0.0097 *D INV0
*I *369:Q O *C 287 242 *L 0 *D DFCN1Q

*CAP
1 *412:I 0.000324
2 *266:6 0.000551
3 *266:5 0.000519
4 *266:4 0.00042
5 *266:3 0.000717
6 *266:2 0.000816
7 *369:Q 0.000302

*RES
1 *369:Q *266:2 1.48
2 *266:3 *266:2 0.885417
3 *266:4 *266:3 0.198333
4 *266:5 *266:4 0.53125
5 *266:5 *266:6 1.48
6 *412:I *266:6 0.714
*END

*D_NET *224 0.005427

*CONN
*I *413:ZN O *C 290 103 *L 0 *D INV0
*I *327:A1 I *C 293 82 *L 0.0106 *D AN2D1

*CAP
1 *413:ZN 0.000112
2 *224:6 0.000339
3 *224:5 0.000937
4 *224:4 0.000838
5 *224:3 0.0014
6 *224:2 0.001499
7 *327:A1 0.000302

*RES
1 *327:A1 *224:2 1.48
2 *224:2 *224:3 1.94792
3 *224:4 *224:3 0.198333
4 *224:4 *224:5 1.0625
5 *224:5 *224:6 1.48
6 *413:ZN *224:6 0.238
*END

*D_NET *209 0.002846

*CONN
*I *464:ZN O *C 293 171 *L 0 *D INV0
*I *435:A2 I *C 293 182 *L 0.014 *D AOI22D0

*CAP
1 *464:ZN 0.000302
2 *209:3 0.001121
3 *209:2 0.001121
4 *435:A2 0.000302

*RES
1 *435:A2 *209:2 1.48
2 *209:3 *209:2 1.59375
3 *209:3 *464:ZN 1.48
*END

*D_NET *174 0.001668

*CONN
*I *448:ZN O *C 298 218 *L 0 *D NR2D0
*I *446:B I *C 296 217 *L 0.0123 *D AOI21D0

*CAP
1 *446:B 0.000302
2 *174:4 0.000313
3 *174:3 0.000323
4 *174:2 0.000428
5 *448:ZN 0.000302

*RES
1 *448:ZN *174:2 1.48
2 *174:3 *174:2 0.396667
3 *174:4 *174:3 0.177083
4 *174:4 *446:B 1.48
*END

*D_NET *242 0.003321

*CONN
*I *339:D I *C 307 70 *L 0.0078 *D DFCN1Q
*I *326:Z O *C 305 56 *L 0 *D AN2D1

*CAP
1 *339:D 0.000302
2 *242:4 0.001288
3 *242:3 0.001288
4 *242:2 0.000335
5 *326:Z 0.000108

*RES
1 *326:Z *242:2 0.238
2 *242:2 *242:3 1.48
3 *242:3 *242:4 1.94792
4 *242:4 *339:D 1.48
*END

*D_NET *269 0.003103

*CONN
*I *396:I I *C 314 92 *L 0.0097 *D INV0
*I *364:Q O *C 318 82 *L 0 *D DFCN1Q

*CAP
1 *396:I 0.000324
2 *269:4 0.000551